smartgridcomm_greensboro_llama_v2/SMARTDS_GSO_solar_extreme_batt_high_peak_opendss/uhs20_1247/uhs20_1247--udt5173/Lines.dss
New Line.l(r:p1ulv6201-udt2832lv) Units=km Length=0.052217 bus1=udt2832lv.1.2 bus2=p1ulv6201.1.2 switch=n enabled=y phases=2 Linecode=1P_UG_AL_1/0_Brenau_2

New Line.l(r:p1ulv7773-udt2832lv) Units=km Length=0.0334052 bus1=udt2832lv.1.2 bus2=p1ulv7773.1.2 switch=n enabled=y phases=2 Linecode=1P_UG_AL_1/0_Brenau_2

New Line.l(r:p1ulv7774-udt2832lv) Units=km Length=0.0380636 bus1=udt2832lv.1.2 bus2=p1ulv7774.1.2 switch=n enabled=y phases=2 Linecode=1P_UG_AL_1/0_Brenau_2

New Line.l(r:p1ulv7775-udt2832lv) Units=km Length=0.0422126 bus1=udt2832lv.1.2 bus2=p1ulv7775.1.2 switch=n enabled=y phases=2 Linecode=1P_UG_AL_1/0_Brenau_2

New Line.l(r:p1ulv7776-udt2832lv) Units=km Length=0.046721 bus1=udt2832lv.1.2 bus2=p1ulv7776.1.2 switch=n enabled=y phases=2 Linecode=1P_UG_AL_1/0_Brenau_2

New Line.l(r:p1ulv6228-udm11324) Units=km Length=0.0134499 bus1=udm11324.1.2 bus2=p1ulv6228.1.2 switch=n enabled=y phases=2 Linecode=1P_UG_AL_1/0_Brenau_2

New Line.l(r:udm11324-udt2832lv) Units=km Length=0.0569971 bus1=udt2832lv.1.2 bus2=udm11324.1.2 switch=n enabled=y phases=2 Linecode=1P_UG_AL_1/0_Brenau_2

New Line.l(r:p1ulv7772-udm11325) Units=km Length=0.0270217 bus1=udm11325.1.2 bus2=p1ulv7772.1.2 switch=n enabled=y phases=2 Linecode=1P_UG_AL_1/0_Brenau_2

New Line.l(r:udm11325-udt2832lv) Units=km Length=0.00890014 bus1=udt2832lv.1.2 bus2=udm11325.1.2 switch=n enabled=y phases=2 Linecode=1P_UG_AL_1/0_Brenau_2

New Line.l(r:p1ulv6208-udt2833lv) Units=km Length=0.0179799 bus1=udt2833lv.1.2 bus2=p1ulv6208.1.2 switch=n enabled=y phases=2 Linecode=1P_UG_AL_1/0_Brenau_2

New Line.l(r:p1ulv6202-udm11330) Units=km Length=0.0215556 bus1=udm11330.1.2 bus2=p1ulv6202.1.2 switch=n enabled=y phases=2 Linecode=1P_UG_AL_1/0_Brenau_2

New Line.l(r:p1ulv6203-udm11330) Units=km Length=0.030051 bus1=udm11330.1.2 bus2=p1ulv6203.1.2 switch=n enabled=y phases=2 Linecode=1P_UG_AL_1/0_Brenau_2

New Line.l(r:p1ulv6204-udm11330) Units=km Length=0.03659490000000001 bus1=udm11330.1.2 bus2=p1ulv6204.1.2 switch=n enabled=y phases=2 Linecode=1P_UG_AL_1/0_Brenau_2

New Line.l(r:p1ulv6205-udm11330) Units=km Length=0.0415017 bus1=udm11330.1.2 bus2=p1ulv6205.1.2 switch=n enabled=y phases=2 Linecode=1P_UG_AL_1/0_Brenau_2

New Line.l(r:p1ulv6206-udm11330) Units=km Length=0.0465207 bus1=udm11330.1.2 bus2=p1ulv6206.1.2 switch=n enabled=y phases=2 Linecode=1P_UG_AL_1/0_Brenau_2

New Line.l(r:p1ulv6207-udm11330) Units=km Length=0.0524078 bus1=udm11330.1.2 bus2=p1ulv6207.1.2 switch=n enabled=y phases=2 Linecode=1P_UG_AL_1/0_Brenau_2

New Line.l(r:udm11330-udt2833lv) Units=km Length=0.00715605 bus1=udt2833lv.1.2 bus2=udm11330.1.2 switch=n enabled=y phases=2 Linecode=1P_UG_AL_4/0_Sweetbriar_2

New Line.l(r:p1ulv6209-udm11337) Units=km Length=0.015578300000000002 bus1=udm11337.1.2 bus2=p1ulv6209.1.2 switch=n enabled=y phases=2 Linecode=1P_UG_AL_1/0_Brenau_2

New Line.l(r:p1ulv6210-udm11337) Units=km Length=0.015037000000000002 bus1=udm11337.1.2 bus2=p1ulv6210.1.2 switch=n enabled=y phases=2 Linecode=1P_UG_AL_1/0_Brenau_2

New Line.l(r:p1ulv6214-udm11339) Units=km Length=0.0204085 bus1=udm11339.1.2 bus2=p1ulv6214.1.2 switch=n enabled=y phases=2 Linecode=1P_UG_AL_1/0_Brenau_2

New Line.l(r:p1ulv6226-udm11339) Units=km Length=0.013604800000000002 bus1=udm11339.1.2 bus2=p1ulv6226.1.2 switch=n enabled=y phases=2 Linecode=1P_UG_AL_1/0_Brenau_2

New Line.l(r:udm11337-udm11339) Units=km Length=0.0443099 bus1=udm11337.1.2 bus2=udm11339.1.2 switch=n enabled=y phases=2 Linecode=1P_UG_AL_1/0_Brenau_2

New Line.l(r:udm11337-udt2833lv) Units=km Length=0.0071645300000000006 bus1=udt2833lv.1.2 bus2=udm11337.1.2 switch=n enabled=y phases=2 Linecode=1P_UG_AL_4/0_Sweetbriar_2

New Line.l(r:p1ulv6217-udt2834lv) Units=km Length=0.0178818 bus1=udt2834lv.1.2 bus2=p1ulv6217.1.2 switch=n enabled=y phases=2 Linecode=1P_UG_AL_1/0_Brenau_2

New Line.l(r:p1ulv6215-udm11342) Units=km Length=0.019396 bus1=udm11342.1.2 bus2=p1ulv6215.1.2 switch=n enabled=y phases=2 Linecode=1P_UG_AL_1/0_Brenau_2

New Line.l(r:p1ulv6216-udm11342) Units=km Length=0.0189911 bus1=udm11342.1.2 bus2=p1ulv6216.1.2 switch=n enabled=y phases=2 Linecode=1P_UG_AL_1/0_Brenau_2

New Line.l(r:p1ulv6227-udm11342) Units=km Length=0.0136623 bus1=udm11342.1.2 bus2=p1ulv6227.1.2 switch=n enabled=y phases=2 Linecode=1P_UG_AL_1/0_Brenau_2

New Line.l(r:udm11342-udt2834lv) Units=km Length=0.00933858 bus1=udt2834lv.1.2 bus2=udm11342.1.2 switch=n enabled=y phases=2 Linecode=1P_UG_AL_1/0_Brenau_2

New Line.l(r:p1ulv6218-udm11345) Units=km Length=0.0174456 bus1=udm11345.1.2 bus2=p1ulv6218.1.2 switch=n enabled=y phases=2 Linecode=1P_UG_AL_1/0_Brenau_2

New Line.l(r:p1ulv6219-udm11345) Units=km Length=0.0162069 bus1=udm11345.1.2 bus2=p1ulv6219.1.2 switch=n enabled=y phases=2 Linecode=1P_UG_AL_1/0_Brenau_2

New Line.l(r:p1ulv6212-udm11341) Units=km Length=0.0154354 bus1=udm11341.1.2 bus2=p1ulv6212.1.2 switch=n enabled=y phases=2 Linecode=1P_UG_AL_1/0_Brenau_2

New Line.l(r:udm11341-udm11345) Units=km Length=0.00717386 bus1=udm11345.1.2 bus2=udm11341.1.2 switch=n enabled=y phases=2 Linecode=1P_UG_AL_1/0_Brenau_2

New Line.l(r:udm11345-udt2834lv) Units=km Length=0.00933858 bus1=udt2834lv.1.2 bus2=udm11345.1.2 switch=n enabled=y phases=2 Linecode=1P_UG_AL_4/0_Sweetbriar_2

New Line.l(r:p1ulv6222-udt2835lv) Units=km Length=0.0148572 bus1=udt2835lv.1.2 bus2=p1ulv6222.1.2 switch=n enabled=y phases=2 Linecode=1P_UG_AL_1/0_Brenau_2

New Line.l(r:p1ulv6230-udt2835lv) Units=km Length=0.0143928 bus1=udt2835lv.1.2 bus2=p1ulv6230.1.2 switch=n enabled=y phases=2 Linecode=1P_UG_AL_1/0_Brenau_2

New Line.l(r:p1ulv6220-udm11348) Units=km Length=0.0143914 bus1=udm11348.1.2 bus2=p1ulv6220.1.2 switch=n enabled=y phases=2 Linecode=1P_UG_AL_1/0_Brenau_2

New Line.l(r:p1ulv32512-udm11348) Units=km Length=0.0636526 bus1=udm11348.1.2 bus2=p1ulv32512.1.2 switch=n enabled=y phases=2 Linecode=1P_UG_AL_1/0_Brenau_2

New Line.l(r:udm11348-udt2835lv) Units=km Length=0.00933858 bus1=udt2835lv.1.2 bus2=udm11348.1.2 switch=n enabled=y phases=2 Linecode=1P_UG_AL_4/0_Sweetbriar_2

New Line.l(r:p1ulv6223-udm11350) Units=km Length=0.0157839 bus1=udm11350.1.2 bus2=p1ulv6223.1.2 switch=n enabled=y phases=2 Linecode=1P_UG_AL_1/0_Brenau_2

New Line.l(r:p1ulv6231-udm11350) Units=km Length=0.0139996 bus1=udm11350.1.2 bus2=p1ulv6231.1.2 switch=n enabled=y phases=2 Linecode=1P_UG_AL_1/0_Brenau_2

New Line.l(r:p1ulv6225-udm11351) Units=km Length=0.0168676 bus1=udm11351.1.2 bus2=p1ulv6225.1.2 switch=n enabled=y phases=2 Linecode=1P_UG_AL_1/0_Brenau_2

New Line.l(r:p1ulv6233-udm11351) Units=km Length=0.0143347 bus1=udm11351.1.2 bus2=p1ulv6233.1.2 switch=n enabled=y phases=2 Linecode=1P_UG_AL_1/0_Brenau_2

New Line.l(r:udm11350-udm11351) Units=km Length=0.00934608 bus1=udm11350.1.2 bus2=udm11351.1.2 switch=n enabled=y phases=2 Linecode=1P_UG_AL_1/0_Brenau_2

New Line.l(r:udm11350-udt2835lv) Units=km Length=0.00933858 bus1=udt2835lv.1.2 bus2=udm11350.1.2 switch=n enabled=y phases=2 Linecode=1P_UG_AL_4/0_Sweetbriar_2

New Line.l(r:p1ulv6235-udt2837lv) Units=km Length=0.04339570000000001 bus1=udt2837lv.1.2 bus2=p1ulv6235.1.2 switch=n enabled=y phases=2 Linecode=1P_OH_AL_4/0_Zuzara_2

New Line.l(r:p1ulv6236-udt2837lv) Units=km Length=0.06174670000000001 bus1=udt2837lv.1.2 bus2=p1ulv6236.1.2 switch=n enabled=y phases=2 Linecode=1P_OH_AL_4/0_Zuzara_2

New Line.l(r:p1ulv6238-udm11366) Units=km Length=0.0591794 bus1=udm11366.1.2 bus2=p1ulv6238.1.2 switch=n enabled=y phases=2 Linecode=1P_UG_AL_1/0_Brenau_2

New Line.l(r:p1ulv6239-udm11367) Units=km Length=0.0795767 bus1=udm11367.1.2 bus2=p1ulv6239.1.2 switch=n enabled=y phases=2 Linecode=1P_UG_AL_1/0_Brenau_2

New Line.l(r:udm11366-udm11367) Units=km Length=0.00850371 bus1=udm11366.1.2 bus2=udm11367.1.2 switch=n enabled=y phases=2 Linecode=1P_UG_AL_1/0_Brenau_2

New Line.l(r:udm11366-udt2839lv) Units=km Length=0.0170255 bus1=udt2839lv.1.2 bus2=udm11366.1.2 switch=n enabled=y phases=2 Linecode=1P_UG_AL_4/0_Sweetbriar_2

New Line.l(r:p1ulv15126-udm11368) Units=km Length=0.0733239 bus1=udm11368.1.2 bus2=p1ulv15126.1.2 switch=n enabled=y phases=2 Linecode=1P_UG_AL_1/0_Brenau_2

New Line.l(r:p1ulv20140-udm11369) Units=km Length=0.0310849 bus1=udm11369.1.2 bus2=p1ulv20140.1.2 switch=n enabled=y phases=2 Linecode=1P_UG_AL_1/0_Brenau_2

New Line.l(r:udm11368-udm11369) Units=km Length=0.00804353 bus1=udm11368.1.2 bus2=udm11369.1.2 switch=n enabled=y phases=2 Linecode=1P_UG_AL_1/0_Brenau_2

New Line.l(r:udm11368-udt2839lv) Units=km Length=0.0165031 bus1=udt2839lv.1.2 bus2=udm11368.1.2 switch=n enabled=y phases=2 Linecode=1P_UG_AL_1/0_Brenau_2

New Line.l(r:p1ulv6240-udm11370) Units=km Length=0.091506 bus1=udm11370.1.2 bus2=p1ulv6240.1.2 switch=n enabled=y phases=2 Linecode=1P_OH_AL_4/0_Zuzara_2

New Line.l(r:p1ulv16704-udm11370) Units=km Length=0.030668 bus1=udm11370.1.2 bus2=p1ulv16704.1.2 switch=n enabled=y phases=2 Linecode=1P_OH_AL_4/0_Zuzara_2

New Line.l(r:p1ulv18650-udm11372) Units=km Length=0.0491495 bus1=udm11372.1.2 bus2=p1ulv18650.1.2 switch=n enabled=y phases=2 Linecode=1P_OH_AL_4/0_Zuzara_2

New Line.l(r:udm11370-udm11372) Units=km Length=0.0137409 bus1=udm11370.1.2 bus2=udm11372.1.2 switch=n enabled=y phases=2 Linecode=1P_OH_AL_2/0_Rucina_2

New Line.l(r:udm11370-udt2840lv) Units=km Length=0.0126206 bus1=udt2840lv.1.2 bus2=udm11370.1.2 switch=n enabled=y phases=2 Linecode=1P_OH_AL_2/0_Rucina_2

New Line.l(r:p1ulv37418-udm11374) Units=km Length=0.024002 bus1=udm11374.1.2 bus2=p1ulv37418.1.2 switch=n enabled=y phases=2 Linecode=1P_OH_AL_2/0_Rucina_2

New Line.l(r:p1ulv29250-udm11373) Units=km Length=0.0419669 bus1=udm11373.1.2 bus2=p1ulv29250.1.2 switch=n enabled=y phases=2 Linecode=1P_OH_AL_4/0_Zuzara_2

New Line.l(r:udm11373-udm11374) Units=km Length=0.0137909 bus1=udm11374.1.2 bus2=udm11373.1.2 switch=n enabled=y phases=2 Linecode=1P_OH_AL_2/0_Rucina_2

New Line.l(r:udm11374-udt2840lv) Units=km Length=0.0264247 bus1=udt2840lv.1.2 bus2=udm11374.1.2 switch=n enabled=y phases=2 Linecode=1P_OH_AL_2/0_Rucina_2

New Line.l(r:p1ulv6242-udt2841lv) Units=km Length=0.0416686 bus1=udt2841lv.1.2 bus2=p1ulv6242.1.2 switch=n enabled=y phases=2 Linecode=1P_OH_AL_4/0_Zuzara_2

New Line.l(r:p1ulv6241-udm11375) Units=km Length=0.0425766 bus1=udm11375.1.2 bus2=p1ulv6241.1.2 switch=n enabled=y phases=2 Linecode=1P_OH_AL_4/0_Zuzara_2

New Line.l(r:udm11375-udt2841lv) Units=km Length=0.0176502 bus1=udt2841lv.1.2 bus2=udm11375.1.2 switch=n enabled=y phases=2 Linecode=1P_OH_AL_2/0_Rucina_2

New Line.l(r:p1ulv6243-udm11377) Units=km Length=0.04209430000000001 bus1=udm11377.1.2 bus2=p1ulv6243.1.2 switch=n enabled=y phases=2 Linecode=1P_OH_AL_4/0_Zuzara_2

New Line.l(r:udm11377-udt2841lv) Units=km Length=0.0176502 bus1=udt2841lv.1.2 bus2=udm11377.1.2 switch=n enabled=y phases=2 Linecode=1P_OH_AL_2/0_Rucina_2

New Line.l(r:p1ulv6245-udm11379) Units=km Length=0.015697 bus1=udm11379.1.2 bus2=p1ulv6245.1.2 switch=n enabled=y phases=2 Linecode=1P_UG_AL_1/0_Brenau_2

New Line.l(r:p1ulv6244-udm11378) Units=km Length=0.0209425 bus1=udm11378.1.2 bus2=p1ulv6244.1.2 switch=n enabled=y phases=2 Linecode=1P_UG_AL_1/0_Brenau_2

New Line.l(r:udm11378-udm11379) Units=km Length=0.00989452 bus1=udm11379.1.2 bus2=udm11378.1.2 switch=n enabled=y phases=2 Linecode=1P_UG_AL_1/0_Brenau_2

New Line.l(r:udm11379-udt2842lv) Units=km Length=0.0184107 bus1=udt2842lv.1.2 bus2=udm11379.1.2 switch=n enabled=y phases=2 Linecode=1P_UG_AL_4/0_Sweetbriar_2

New Line.l(r:p1ulv13779-udm11380) Units=km Length=0.0221413 bus1=udm11380.1.2 bus2=p1ulv13779.1.2 switch=n enabled=y phases=2 Linecode=1P_UG_AL_1/0_Brenau_2

New Line.l(r:udm11380-udt2842lv) Units=km Length=0.0588405 bus1=udt2842lv.1.2 bus2=udm11380.1.2 switch=n enabled=y phases=2 Linecode=1P_UG_AL_1/0_Brenau_2

New Line.l(r:p1ulv6247-udt2843lv) Units=km Length=0.0415685 bus1=udt2843lv.1.2 bus2=p1ulv6247.1.2 switch=n enabled=y phases=2 Linecode=1P_OH_AL_4/0_Zuzara_2

New Line.l(r:p1ulv6246-udm11381) Units=km Length=0.041361300000000004 bus1=udm11381.1.2 bus2=p1ulv6246.1.2 switch=n enabled=y phases=2 Linecode=1P_OH_AL_4/0_Zuzara_2

New Line.l(r:udm11381-udt2843lv) Units=km Length=0.0184871 bus1=udt2843lv.1.2 bus2=udm11381.1.2 switch=n enabled=y phases=2 Linecode=1P_OH_AL_2/0_Rucina_2

New Line.l(r:p1ulv6248-udm11383) Units=km Length=0.04994280000000001 bus1=udm11383.1.2 bus2=p1ulv6248.1.2 switch=n enabled=y phases=2 Linecode=1P_OH_AL_4/0_Zuzara_2

New Line.l(r:udm11383-udt2843lv) Units=km Length=0.0184948 bus1=udt2843lv.1.2 bus2=udm11383.1.2 switch=n enabled=y phases=2 Linecode=1P_OH_AL_2/0_Rucina_2

New Line.l(r:p1ulv35709-udt2844lv) Units=km Length=0.0345671 bus1=udt2844lv.1.2 bus2=p1ulv35709.1.2 switch=n enabled=y phases=2 Linecode=1P_OH_AL_4/0_Zuzara_2

New Line.l(r:p1ulv6249-udm11384) Units=km Length=0.0295527 bus1=udm11384.1.2 bus2=p1ulv6249.1.2 switch=n enabled=y phases=2 Linecode=1P_OH_AL_4/0_Zuzara_2

New Line.l(r:udm11384-udt2844lv) Units=km Length=0.0147551 bus1=udt2844lv.1.2 bus2=udm11384.1.2 switch=n enabled=y phases=2 Linecode=1P_OH_AL_2/0_Rucina_2

New Line.l(r:p1ulv30858-udt3046lv) Units=km Length=0.0606687 bus1=udt3046lv.1.2 bus2=p1ulv30858.1.2 switch=n enabled=y phases=2 Linecode=1P_OH_AL_4/0_Zuzara_2

New Line.l(r:p1ulv8204-udm12039) Units=km Length=0.0106563 bus1=udm12039.1.2 bus2=p1ulv8204.1.2 switch=n enabled=y phases=2 Linecode=1P_OH_AL_2/0_Rucina_2

New Line.l(r:p1ulv6631-udm12037) Units=km Length=0.010889 bus1=udm12037.1.2 bus2=p1ulv6631.1.2 switch=n enabled=y phases=2 Linecode=1P_OH_AL_2/0_Rucina_2

New Line.l(r:p1ulv6633-udm12037) Units=km Length=0.00906608 bus1=udm12037.1.2 bus2=p1ulv6633.1.2 switch=n enabled=y phases=2 Linecode=1P_OH_AL_2/0_Rucina_2

New Line.l(r:udm12037-udm12039) Units=km Length=0.0165608 bus1=udm12039.1.2 bus2=udm12037.1.2 switch=n enabled=y phases=2 Linecode=1P_OH_AL_2/0_Rucina_2

New Line.l(r:udm12039-udt3046lv) Units=km Length=0.0360506 bus1=udt3046lv.1.2 bus2=udm12039.1.2 switch=n enabled=y phases=2 Linecode=1P_OH_AL_4/0_Zuzara_2

New Line.l(r:p1ulv30951-udm12041) Units=km Length=0.01987 bus1=udm12041.1.2 bus2=p1ulv30951.1.2 switch=n enabled=y phases=2 Linecode=1P_OH_AL_2/0_Rucina_2

New Line.l(r:udm12041-udt3046lv) Units=km Length=0.0193473 bus1=udt3046lv.1.2 bus2=udm12041.1.2 switch=n enabled=y phases=2 Linecode=1P_OH_AL_2/0_Rucina_2

New Line.l(r:p1ulv8201-udt3047lv) Units=km Length=0.0110615 bus1=udt3047lv.1.2 bus2=p1ulv8201.1.2 switch=n enabled=y phases=2 Linecode=1P_OH_AL_2/0_Rucina_2

New Line.l(r:p1ulv8203-udt3047lv) Units=km Length=0.00960533 bus1=udt3047lv.1.2 bus2=p1ulv8203.1.2 switch=n enabled=y phases=2 Linecode=1P_OH_AL_2/0_Rucina_2

New Line.l(r:p1ulv6632-udm12042) Units=km Length=0.00900002 bus1=udm12042.1.2 bus2=p1ulv6632.1.2 switch=n enabled=y phases=2 Linecode=1P_OH_AL_2/0_Rucina_2

New Line.l(r:p1ulv8202-udm12042) Units=km Length=0.010261700000000002 bus1=udm12042.1.2 bus2=p1ulv8202.1.2 switch=n enabled=y phases=2 Linecode=1P_OH_AL_2/0_Rucina_2

New Line.l(r:udm12042-udt3047lv) Units=km Length=0.0165525 bus1=udt3047lv.1.2 bus2=udm12042.1.2 switch=n enabled=y phases=2 Linecode=1P_OH_AL_2/0_Rucina_2

New Line.l(r:p1ulv8196-udm12043) Units=km Length=0.009512450000000002 bus1=udm12043.1.2 bus2=p1ulv8196.1.2 switch=n enabled=y phases=2 Linecode=1P_OH_AL_2/0_Rucina_2

New Line.l(r:p1ulv8197-udm12044) Units=km Length=0.00951783 bus1=udm12044.1.2 bus2=p1ulv8197.1.2 switch=n enabled=y phases=2 Linecode=1P_OH_AL_2/0_Rucina_2

New Line.l(r:udm12043-udm12044) Units=km Length=0.0145329 bus1=udm12043.1.2 bus2=udm12044.1.2 switch=n enabled=y phases=2 Linecode=1P_OH_AL_2/0_Rucina_2

New Line.l(r:udm12043-udt3047lv) Units=km Length=0.0165663 bus1=udt3047lv.1.2 bus2=udm12043.1.2 switch=n enabled=y phases=2 Linecode=1P_OH_AL_2/0_Rucina_2

New Line.l(r:p1ulv7389-udm13151) Units=km Length=0.0060203 bus1=udm13151.1.2 bus2=p1ulv7389.1.2 switch=n enabled=y phases=2 Linecode=1P_OH_AL_2/0_Rucina_2

New Line.l(r:p1ulv7394-udm13152) Units=km Length=0.0031328700000000003 bus1=udm13152.1.2 bus2=p1ulv7394.1.2 switch=n enabled=y phases=2 Linecode=1P_OH_AL_4_Periwinkle_2

New Line.l(r:udm13151-udm13152) Units=km Length=0.0181898 bus1=udm13151.1.2 bus2=udm13152.1.2 switch=n enabled=y phases=2 Linecode=1P_OH_AL_2/0_Rucina_2

New Line.l(r:udm13151-udt3343lv) Units=km Length=0.0181837 bus1=udt3343lv.1.2 bus2=udm13151.1.2 switch=n enabled=y phases=2 Linecode=1P_OH_AL_2/0_Rucina_2

New Line.l(r:p1ulv13406-udm13153) Units=km Length=0.0020169300000000005 bus1=udm13153.1.2 bus2=p1ulv13406.1.2 switch=n enabled=y phases=2 Linecode=1P_OH_AL_4_Periwinkle_2

New Line.l(r:udm13153-udt3343lv) Units=km Length=0.0492663 bus1=udt3343lv.1.2 bus2=udm13153.1.2 switch=n enabled=y phases=2 Linecode=1P_OH_AL_4/0_Zuzara_2

New Line.l(r:p1ulv7716-udt3518lv) Units=km Length=0.0299873 bus1=udt3518lv.1.2 bus2=p1ulv7716.1.2 switch=n enabled=y phases=2 Linecode=1P_OH_AL_4/0_Zuzara_2

New Line.l(r:p1ulv7717-udm13771) Units=km Length=0.0152455 bus1=udm13771.1.2 bus2=p1ulv7717.1.2 switch=n enabled=y phases=2 Linecode=1P_UG_AL_1/0_Brenau_2

New Line.l(r:p1ulv7718-udm13771) Units=km Length=0.0142842 bus1=udm13771.1.2 bus2=p1ulv7718.1.2 switch=n enabled=y phases=2 Linecode=1P_UG_AL_1/0_Brenau_2

New Line.l(r:p1ulv7720-udm13771) Units=km Length=0.0153555 bus1=udm13771.1.2 bus2=p1ulv7720.1.2 switch=n enabled=y phases=2 Linecode=1P_UG_AL_1/0_Brenau_2

New Line.l(r:p1ulv7735-udm13771) Units=km Length=0.012412300000000001 bus1=udm13771.1.2 bus2=p1ulv7735.1.2 switch=n enabled=y phases=2 Linecode=1P_UG_AL_1/0_Brenau_2

New Line.l(r:udm13771-udt3519lv) Units=km Length=0.00722582 bus1=udt3519lv.1.2 bus2=udm13771.1.2 switch=n enabled=y phases=2 Linecode=1P_UG_AL_4/0_Sweetbriar_2

New Line.l(r:p1ulv7736-udm13775) Units=km Length=0.015288000000000001 bus1=udm13775.1.2 bus2=p1ulv7736.1.2 switch=n enabled=y phases=2 Linecode=1P_UG_AL_1/0_Brenau_2

New Line.l(r:p1ulv7737-udm13776) Units=km Length=0.0157351 bus1=udm13776.1.2 bus2=p1ulv7737.1.2 switch=n enabled=y phases=2 Linecode=1P_UG_AL_1/0_Brenau_2

New Line.l(r:udm13775-udm13776) Units=km Length=0.0071191100000000005 bus1=udm13775.1.2 bus2=udm13776.1.2 switch=n enabled=y phases=2 Linecode=1P_UG_AL_1/0_Brenau_2

New Line.l(r:udm13775-udt3519lv) Units=km Length=0.00722901 bus1=udt3519lv.1.2 bus2=udm13775.1.2 switch=n enabled=y phases=2 Linecode=1P_UG_AL_1/0_Brenau_2

New Line.l(r:p1ulv7723-udt3520lv) Units=km Length=0.014825800000000002 bus1=udt3520lv.1.2 bus2=p1ulv7723.1.2 switch=n enabled=y phases=2 Linecode=1P_UG_AL_1/0_Brenau_2

New Line.l(r:p1ulv7724-udt3520lv) Units=km Length=0.014908 bus1=udt3520lv.1.2 bus2=p1ulv7724.1.2 switch=n enabled=y phases=2 Linecode=1P_UG_AL_1/0_Brenau_2

New Line.l(r:p1ulv7746-udt3520lv) Units=km Length=0.0141867 bus1=udt3520lv.1.2 bus2=p1ulv7746.1.2 switch=n enabled=y phases=2 Linecode=1P_UG_AL_1/0_Brenau_2

New Line.l(r:p1ulv7722-udm13778) Units=km Length=0.0162704 bus1=udm13778.1.2 bus2=p1ulv7722.1.2 switch=n enabled=y phases=2 Linecode=1P_UG_AL_1/0_Brenau_2

New Line.l(r:p1ulv7752-udm13778) Units=km Length=0.0155566 bus1=udm13778.1.2 bus2=p1ulv7752.1.2 switch=n enabled=y phases=2 Linecode=1P_UG_AL_1/0_Brenau_2

New Line.l(r:p1ulv7721-udm13777) Units=km Length=0.0176457 bus1=udm13777.1.2 bus2=p1ulv7721.1.2 switch=n enabled=y phases=2 Linecode=1P_UG_AL_1/0_Brenau_2

New Line.l(r:p1ulv7744-udm13777) Units=km Length=0.014723000000000002 bus1=udm13777.1.2 bus2=p1ulv7744.1.2 switch=n enabled=y phases=2 Linecode=1P_UG_AL_1/0_Brenau_2

New Line.l(r:p1ulv7743-udm13781) Units=km Length=0.014799 bus1=udm13781.1.2 bus2=p1ulv7743.1.2 switch=n enabled=y phases=2 Linecode=1P_UG_AL_1/0_Brenau_2

New Line.l(r:udm13777-udm13781) Units=km Length=0.0082201 bus1=udm13777.1.2 bus2=udm13781.1.2 switch=n enabled=y phases=2 Linecode=1P_UG_AL_1/0_Brenau_2

New Line.l(r:udm13777-udm13778) Units=km Length=0.008213400000000001 bus1=udm13778.1.2 bus2=udm13777.1.2 switch=n enabled=y phases=2 Linecode=1P_UG_AL_2/0_Converse_2

New Line.l(r:udm13778-udt3520lv) Units=km Length=0.00779483 bus1=udt3520lv.1.2 bus2=udm13778.1.2 switch=n enabled=y phases=2 Linecode=1P_UG_AL_4/0_Sweetbriar_2

New Line.l(r:p1ulv7754-udm13785) Units=km Length=0.0138136 bus1=udm13785.1.2 bus2=p1ulv7754.1.2 switch=n enabled=y phases=2 Linecode=1P_UG_AL_1/0_Brenau_2

New Line.l(r:p1ulv7771-udm13787) Units=km Length=0.0132462 bus1=udm13787.1.2 bus2=p1ulv7771.1.2 switch=n enabled=y phases=2 Linecode=1P_UG_AL_1/0_Brenau_2

New Line.l(r:p1ulv7770-udm13786) Units=km Length=0.0157411 bus1=udm13786.1.2 bus2=p1ulv7770.1.2 switch=n enabled=y phases=2 Linecode=1P_UG_AL_1/0_Brenau_2

New Line.l(r:udm13786-udm13787) Units=km Length=0.00675406 bus1=udm13787.1.2 bus2=udm13786.1.2 switch=n enabled=y phases=2 Linecode=1P_UG_AL_1/0_Brenau_2

New Line.l(r:udm13785-udm13787) Units=km Length=0.00674581 bus1=udm13785.1.2 bus2=udm13787.1.2 switch=n enabled=y phases=2 Linecode=1P_UG_AL_1/0_Brenau_2

New Line.l(r:udm13785-udt3520lv) Units=km Length=0.0135132 bus1=udt3520lv.1.2 bus2=udm13785.1.2 switch=n enabled=y phases=2 Linecode=1P_UG_AL_2/0_Converse_2

New Line.l(r:p1ulv7727-udt3521lv) Units=km Length=0.0181017 bus1=udt3521lv.1.2 bus2=p1ulv7727.1.2 switch=n enabled=y phases=2 Linecode=1P_UG_AL_1/0_Brenau_2

New Line.l(r:p1ulv7729-udt3521lv) Units=km Length=0.0181966 bus1=udt3521lv.1.2 bus2=p1ulv7729.1.2 switch=n enabled=y phases=2 Linecode=1P_UG_AL_1/0_Brenau_2

New Line.l(r:p1ulv7725-udm13788) Units=km Length=0.0193262 bus1=udm13788.1.2 bus2=p1ulv7725.1.2 switch=n enabled=y phases=2 Linecode=1P_UG_AL_1/0_Brenau_2

New Line.l(r:p1ulv7726-udm13788) Units=km Length=0.0190819 bus1=udm13788.1.2 bus2=p1ulv7726.1.2 switch=n enabled=y phases=2 Linecode=1P_UG_AL_1/0_Brenau_2

New Line.l(r:udm13788-udt3521lv) Units=km Length=0.00961899 bus1=udt3521lv.1.2 bus2=udm13788.1.2 switch=n enabled=y phases=2 Linecode=1P_UG_AL_1/0_Brenau_2

New Line.l(r:p1ulv7730-udm13792) Units=km Length=0.013222 bus1=udm13792.1.2 bus2=p1ulv7730.1.2 switch=n enabled=y phases=2 Linecode=1P_UG_AL_1/0_Brenau_2

New Line.l(r:p1ulv7731-udm13793) Units=km Length=0.0143696 bus1=udm13793.1.2 bus2=p1ulv7731.1.2 switch=n enabled=y phases=2 Linecode=1P_UG_AL_1/0_Brenau_2

New Line.l(r:p1ulv7732-udm13794) Units=km Length=0.0156028 bus1=udm13794.1.2 bus2=p1ulv7732.1.2 switch=n enabled=y phases=2 Linecode=1P_UG_AL_1/0_Brenau_2

New Line.l(r:p1ulv7733-udm13794) Units=km Length=0.0160512 bus1=udm13794.1.2 bus2=p1ulv7733.1.2 switch=n enabled=y phases=2 Linecode=1P_UG_AL_1/0_Brenau_2

New Line.l(r:p1ulv7734-udm13796) Units=km Length=0.0168813 bus1=udm13796.1.2 bus2=p1ulv7734.1.2 switch=n enabled=y phases=2 Linecode=1P_UG_AL_1/0_Brenau_2

New Line.l(r:udm13794-udm13796) Units=km Length=0.008359250000000002 bus1=udm13794.1.2 bus2=udm13796.1.2 switch=n enabled=y phases=2 Linecode=1P_UG_AL_1/0_Brenau_2

New Line.l(r:udm13793-udm13794) Units=km Length=0.008359250000000002 bus1=udm13793.1.2 bus2=udm13794.1.2 switch=n enabled=y phases=2 Linecode=1P_UG_AL_1/0_Brenau_2

New Line.l(r:udm13792-udm13793) Units=km Length=0.00835419 bus1=udm13792.1.2 bus2=udm13793.1.2 switch=n enabled=y phases=2 Linecode=1P_UG_AL_2/0_Converse_2

New Line.l(r:udm13792-udt3521lv) Units=km Length=0.00826768 bus1=udt3521lv.1.2 bus2=udm13792.1.2 switch=n enabled=y phases=2 Linecode=1P_UG_AL_4/0_Sweetbriar_2

New Line.l(r:p1ulv7748-udt3522lv) Units=km Length=0.0138398 bus1=udt3522lv.1.2 bus2=p1ulv7748.1.2 switch=n enabled=y phases=2 Linecode=1P_UG_AL_1/0_Brenau_2

New Line.l(r:p1ulv7740-udm13799) Units=km Length=0.0108786 bus1=udm13799.1.2 bus2=p1ulv7740.1.2 switch=n enabled=y phases=2 Linecode=1P_UG_AL_1/0_Brenau_2

New Line.l(r:p1ulv7747-udm13799) Units=km Length=0.0152191 bus1=udm13799.1.2 bus2=p1ulv7747.1.2 switch=n enabled=y phases=2 Linecode=1P_UG_AL_1/0_Brenau_2

New Line.l(r:p1ulv7739-udm13798) Units=km Length=0.0149202 bus1=udm13798.1.2 bus2=p1ulv7739.1.2 switch=n enabled=y phases=2 Linecode=1P_UG_AL_1/0_Brenau_2

New Line.l(r:p1ulv7738-udm13797) Units=km Length=0.0156961 bus1=udm13797.1.2 bus2=p1ulv7738.1.2 switch=n enabled=y phases=2 Linecode=1P_UG_AL_1/0_Brenau_2

New Line.l(r:udm13797-udm13798) Units=km Length=0.00694295 bus1=udm13798.1.2 bus2=udm13797.1.2 switch=n enabled=y phases=2 Linecode=1P_UG_AL_1/0_Brenau_2

New Line.l(r:udm13798-udm13799) Units=km Length=0.00838816 bus1=udm13799.1.2 bus2=udm13798.1.2 switch=n enabled=y phases=2 Linecode=1P_UG_AL_1/0_Brenau_2

New Line.l(r:udm13799-udt3522lv) Units=km Length=0.00838816 bus1=udt3522lv.1.2 bus2=udm13799.1.2 switch=n enabled=y phases=2 Linecode=1P_UG_AL_2/0_Converse_2

New Line.l(r:p1ulv7750-udm13803) Units=km Length=0.0139215 bus1=udm13803.1.2 bus2=p1ulv7750.1.2 switch=n enabled=y phases=2 Linecode=1P_UG_AL_1/0_Brenau_2

New Line.l(r:p1ulv7741-udm13800) Units=km Length=0.014733900000000001 bus1=udm13800.1.2 bus2=p1ulv7741.1.2 switch=n enabled=y phases=2 Linecode=1P_UG_AL_1/0_Brenau_2

New Line.l(r:udm13800-udm13803) Units=km Length=0.008213400000000001 bus1=udm13803.1.2 bus2=udm13800.1.2 switch=n enabled=y phases=2 Linecode=1P_UG_AL_1/0_Brenau_2

New Line.l(r:udm13803-udt3522lv) Units=km Length=0.0082201 bus1=udt3522lv.1.2 bus2=udm13803.1.2 switch=n enabled=y phases=2 Linecode=1P_UG_AL_4/0_Sweetbriar_2

New Line.l(r:p1ulv7756-udt3523lv) Units=km Length=0.014015900000000001 bus1=udt3523lv.1.2 bus2=p1ulv7756.1.2 switch=n enabled=y phases=2 Linecode=1P_UG_AL_1/0_Brenau_2

New Line.l(r:p1ulv7758-udt3523lv) Units=km Length=0.0148965 bus1=udt3523lv.1.2 bus2=p1ulv7758.1.2 switch=n enabled=y phases=2 Linecode=1P_UG_AL_1/0_Brenau_2

New Line.l(r:p1ulv7755-udm13804) Units=km Length=0.0140773 bus1=udm13804.1.2 bus2=p1ulv7755.1.2 switch=n enabled=y phases=2 Linecode=1P_UG_AL_1/0_Brenau_2

New Line.l(r:udm13804-udt3523lv) Units=km Length=0.00674016 bus1=udt3523lv.1.2 bus2=udm13804.1.2 switch=n enabled=y phases=2 Linecode=1P_UG_AL_1/0_Brenau_2

New Line.l(r:p1ulv7759-udm13807) Units=km Length=0.0169169 bus1=udm13807.1.2 bus2=p1ulv7759.1.2 switch=n enabled=y phases=2 Linecode=1P_UG_AL_1/0_Brenau_2

New Line.l(r:p1ulv7769-udm13807) Units=km Length=0.0161423 bus1=udm13807.1.2 bus2=p1ulv7769.1.2 switch=n enabled=y phases=2 Linecode=1P_UG_AL_1/0_Brenau_2

New Line.l(r:udm13807-udt3523lv) Units=km Length=0.00801544 bus1=udt3523lv.1.2 bus2=udm13807.1.2 switch=n enabled=y phases=2 Linecode=1P_UG_AL_1/0_Brenau_2

New Line.l(r:p1ulv7762-udt3524lv) Units=km Length=0.0134199 bus1=udt3524lv.1.2 bus2=p1ulv7762.1.2 switch=n enabled=y phases=2 Linecode=1P_UG_AL_1/0_Brenau_2

New Line.l(r:p1ulv7763-udt3524lv) Units=km Length=0.0133904 bus1=udt3524lv.1.2 bus2=p1ulv7763.1.2 switch=n enabled=y phases=2 Linecode=1P_UG_AL_1/0_Brenau_2

New Line.l(r:p1ulv7765-udt3524lv) Units=km Length=0.0153764 bus1=udt3524lv.1.2 bus2=p1ulv7765.1.2 switch=n enabled=y phases=2 Linecode=1P_UG_AL_1/0_Brenau_2

New Line.l(r:p1ulv7767-udt3524lv) Units=km Length=0.01428 bus1=udt3524lv.1.2 bus2=p1ulv7767.1.2 switch=n enabled=y phases=2 Linecode=1P_UG_AL_1/0_Brenau_2

New Line.l(r:p1ulv7760-udm13809) Units=km Length=0.0145889 bus1=udm13809.1.2 bus2=p1ulv7760.1.2 switch=n enabled=y phases=2 Linecode=1P_UG_AL_1/0_Brenau_2

New Line.l(r:p1ulv7761-udm13809) Units=km Length=0.013748 bus1=udm13809.1.2 bus2=p1ulv7761.1.2 switch=n enabled=y phases=2 Linecode=1P_UG_AL_1/0_Brenau_2

New Line.l(r:p1ulv7768-udm13809) Units=km Length=0.00898944 bus1=udm13809.1.2 bus2=p1ulv7768.1.2 switch=n enabled=y phases=2 Linecode=1P_UG_AL_1/0_Brenau_2

New Line.l(r:udm13809-udt3524lv) Units=km Length=0.00890014 bus1=udt3524lv.1.2 bus2=udm13809.1.2 switch=n enabled=y phases=2 Linecode=1P_UG_AL_2/0_Converse_2

New Line.l(r:p1ulv7766-udm13814) Units=km Length=0.0155719 bus1=udm13814.1.2 bus2=p1ulv7766.1.2 switch=n enabled=y phases=2 Linecode=1P_UG_AL_1/0_Brenau_2

New Line.l(r:udm13814-udt3524lv) Units=km Length=0.00669024 bus1=udt3524lv.1.2 bus2=udm13814.1.2 switch=n enabled=y phases=2 Linecode=1P_UG_AL_1/0_Brenau_2

New Line.l(r:p1ulv8172-udt3731lv) Units=km Length=0.0178076 bus1=udt3731lv.1.2 bus2=p1ulv8172.1.2 switch=n enabled=y phases=2 Linecode=1P_OH_AL_2/0_Rucina_2

New Line.l(r:p1ulv8174-udt3731lv) Units=km Length=0.0141322 bus1=udt3731lv.1.2 bus2=p1ulv8174.1.2 switch=n enabled=y phases=2 Linecode=1P_OH_AL_2/0_Rucina_2

New Line.l(r:p1ulv34175-udm14493) Units=km Length=0.0375095 bus1=udm14493.1.2 bus2=p1ulv34175.1.2 switch=n enabled=y phases=2 Linecode=1P_OH_AL_4/0_Zuzara_2

New Line.l(r:udm14493-udt3731lv) Units=km Length=0.00607603 bus1=udt3731lv.1.2 bus2=udm14493.1.2 switch=n enabled=y phases=2 Linecode=1P_OH_AL_2/0_Rucina_2

New Line.l(r:p1ulv8177-udt3732lv) Units=km Length=0.0108297 bus1=udt3732lv.1.2 bus2=p1ulv8177.1.2 switch=n enabled=y phases=2 Linecode=1P_OH_AL_2/0_Rucina_2

New Line.l(r:p1ulv8178-udt3732lv) Units=km Length=0.01307 bus1=udt3732lv.1.2 bus2=p1ulv8178.1.2 switch=n enabled=y phases=2 Linecode=1P_OH_AL_2/0_Rucina_2

New Line.l(r:p1ulv8175-udm14494) Units=km Length=0.0103831 bus1=udm14494.1.2 bus2=p1ulv8175.1.2 switch=n enabled=y phases=2 Linecode=1P_OH_AL_2/0_Rucina_2

New Line.l(r:udm14494-udt3732lv) Units=km Length=0.0107205 bus1=udt3732lv.1.2 bus2=udm14494.1.2 switch=n enabled=y phases=2 Linecode=1P_OH_AL_2/0_Rucina_2

New Line.l(r:p1ulv8198-udt3733lv) Units=km Length=0.0123268 bus1=udt3733lv.1.2 bus2=p1ulv8198.1.2 switch=n enabled=y phases=2 Linecode=1P_OH_AL_2/0_Rucina_2

New Line.l(r:p1ulv8179-udm14497) Units=km Length=0.00869622 bus1=udm14497.1.2 bus2=p1ulv8179.1.2 switch=n enabled=y phases=2 Linecode=1P_OH_AL_2/0_Rucina_2

New Line.l(r:p1ulv8180-udm14497) Units=km Length=0.00731548 bus1=udm14497.1.2 bus2=p1ulv8180.1.2 switch=n enabled=y phases=2 Linecode=1P_OH_AL_2/0_Rucina_2

New Line.l(r:udm14497-udt3733lv) Units=km Length=0.0147153 bus1=udt3733lv.1.2 bus2=udm14497.1.2 switch=n enabled=y phases=2 Linecode=1P_OH_AL_2/0_Rucina_2

New Line.l(r:p1ulv8181-udm14499) Units=km Length=0.0105483 bus1=udm14499.1.2 bus2=p1ulv8181.1.2 switch=n enabled=y phases=2 Linecode=1P_OH_AL_2/0_Rucina_2

New Line.l(r:p1ulv8182-udm14499) Units=km Length=0.0112718 bus1=udm14499.1.2 bus2=p1ulv8182.1.2 switch=n enabled=y phases=2 Linecode=1P_OH_AL_2/0_Rucina_2

New Line.l(r:p1ulv8199-udm14499) Units=km Length=0.011969500000000001 bus1=udm14499.1.2 bus2=p1ulv8199.1.2 switch=n enabled=y phases=2 Linecode=1P_OH_AL_2/0_Rucina_2

New Line.l(r:udm14499-udt3733lv) Units=km Length=0.0196189 bus1=udt3733lv.1.2 bus2=udm14499.1.2 switch=n enabled=y phases=2 Linecode=1P_OH_AL_2/0_Rucina_2

New Line.l(r:p1ulv8183-udt3734lv) Units=km Length=0.0126331 bus1=udt3734lv.1.2 bus2=p1ulv8183.1.2 switch=n enabled=y phases=2 Linecode=1P_OH_AL_2/0_Rucina_2

New Line.l(r:p1ulv8186-udt3734lv) Units=km Length=0.0102447 bus1=udt3734lv.1.2 bus2=p1ulv8186.1.2 switch=n enabled=y phases=2 Linecode=1P_OH_AL_2/0_Rucina_2

New Line.l(r:p1ulv8187-udm14505) Units=km Length=0.0100756 bus1=udm14505.1.2 bus2=p1ulv8187.1.2 switch=n enabled=y phases=2 Linecode=1P_OH_AL_2/0_Rucina_2

New Line.l(r:p1ulv8188-udm14505) Units=km Length=0.0100008 bus1=udm14505.1.2 bus2=p1ulv8188.1.2 switch=n enabled=y phases=2 Linecode=1P_OH_AL_2/0_Rucina_2

New Line.l(r:udm14505-udt3734lv) Units=km Length=0.0196132 bus1=udt3734lv.1.2 bus2=udm14505.1.2 switch=n enabled=y phases=2 Linecode=1P_OH_AL_2/0_Rucina_2

New Line.l(r:p1ulv8184-udm14507) Units=km Length=0.00746073 bus1=udm14507.1.2 bus2=p1ulv8184.1.2 switch=n enabled=y phases=2 Linecode=1P_OH_AL_2/0_Rucina_2

New Line.l(r:p1ulv8185-udm14507) Units=km Length=0.0197378 bus1=udm14507.1.2 bus2=p1ulv8185.1.2 switch=n enabled=y phases=2 Linecode=1P_OH_AL_2/0_Rucina_2

New Line.l(r:p1ulv8189-udm14507) Units=km Length=0.0110409 bus1=udm14507.1.2 bus2=p1ulv8189.1.2 switch=n enabled=y phases=2 Linecode=1P_OH_AL_2/0_Rucina_2

New Line.l(r:udm14507-udt3735lv) Units=km Length=0.0149694 bus1=udt3735lv.1.2 bus2=udm14507.1.2 switch=n enabled=y phases=2 Linecode=1P_OH_AL_2/0_Rucina_2

New Line.l(r:p1ulv11294-udm14510) Units=km Length=0.0364479 bus1=udm14510.1.2 bus2=p1ulv11294.1.2 switch=n enabled=y phases=2 Linecode=1P_OH_AL_4/0_Zuzara_2

New Line.l(r:udm14510-udt3735lv) Units=km Length=0.0420664 bus1=udt3735lv.1.2 bus2=udm14510.1.2 switch=n enabled=y phases=2 Linecode=1P_OH_AL_4/0_Zuzara_2

New Line.l(r:p1ulv8193-udt3736lv) Units=km Length=0.0107846 bus1=udt3736lv.1.2 bus2=p1ulv8193.1.2 switch=n enabled=y phases=2 Linecode=1P_OH_AL_2/0_Rucina_2

New Line.l(r:p1ulv8190-udm14511) Units=km Length=0.0109885 bus1=udm14511.1.2 bus2=p1ulv8190.1.2 switch=n enabled=y phases=2 Linecode=1P_OH_AL_2/0_Rucina_2

New Line.l(r:p1ulv19008-udm14511) Units=km Length=0.02728 bus1=udm14511.1.2 bus2=p1ulv19008.1.2 switch=n enabled=y phases=2 Linecode=1P_OH_AL_4/0_Zuzara_2

New Line.l(r:udm14511-udt3736lv) Units=km Length=0.018187600000000005 bus1=udt3736lv.1.2 bus2=udm14511.1.2 switch=n enabled=y phases=2 Linecode=1P_OH_AL_2/0_Rucina_2

New Line.l(r:p1ulv8192-udm14512) Units=km Length=0.00955391 bus1=udm14512.1.2 bus2=p1ulv8192.1.2 switch=n enabled=y phases=2 Linecode=1P_OH_AL_2/0_Rucina_2

New Line.l(r:udm14512-udt3736lv) Units=km Length=0.0181814 bus1=udt3736lv.1.2 bus2=udm14512.1.2 switch=n enabled=y phases=2 Linecode=1P_OH_AL_2/0_Rucina_2

New Line.l(r:p1ulv8194-udm14516) Units=km Length=0.00960422 bus1=udm14516.1.2 bus2=p1ulv8194.1.2 switch=n enabled=y phases=2 Linecode=1P_OH_AL_2/0_Rucina_2

New Line.l(r:p1ulv8191-udm14515) Units=km Length=0.00984106 bus1=udm14515.1.2 bus2=p1ulv8191.1.2 switch=n enabled=y phases=2 Linecode=1P_OH_AL_2/0_Rucina_2

New Line.l(r:udm14515-udm14516) Units=km Length=0.0181814 bus1=udm14516.1.2 bus2=udm14515.1.2 switch=n enabled=y phases=2 Linecode=1P_OH_AL_2/0_Rucina_2

New Line.l(r:udm14516-udt3737lv) Units=km Length=0.018187600000000005 bus1=udt3737lv.1.2 bus2=udm14516.1.2 switch=n enabled=y phases=2 Linecode=1P_OH_AL_2/0_Rucina_2

New Line.l(r:p1ulv8200-udm14517) Units=km Length=0.0073264 bus1=udm14517.1.2 bus2=p1ulv8200.1.2 switch=n enabled=y phases=2 Linecode=1P_OH_AL_2/0_Rucina_2

New Line.l(r:udm14517-udt3737lv) Units=km Length=0.0290658 bus1=udt3737lv.1.2 bus2=udm14517.1.2 switch=n enabled=y phases=2 Linecode=1P_OH_AL_4/0_Zuzara_2

New Line.l(r:p1ulv8691-udm15258) Units=km Length=0.07380720000000002 bus1=udm15258.1.2 bus2=p1ulv8691.1.2 switch=n enabled=y phases=2 Linecode=1P_OH_AL_4/0_Zuzara_2

New Line.l(r:p1ulv25422-udm15262) Units=km Length=0.0484241 bus1=udm15262.1.2 bus2=p1ulv25422.1.2 switch=n enabled=y phases=2 Linecode=1P_OH_AL_4/0_Zuzara_2

New Line.l(r:p1ulv24991-udm15261) Units=km Length=0.0445014 bus1=udm15261.1.2 bus2=p1ulv24991.1.2 switch=n enabled=y phases=2 Linecode=1P_OH_AL_4/0_Zuzara_2

New Line.l(r:udm15261-udm15262) Units=km Length=0.017807800000000002 bus1=udm15262.1.2 bus2=udm15261.1.2 switch=n enabled=y phases=2 Linecode=1P_OH_AL_2/0_Rucina_2

New Line.l(r:udm15258-udm15262) Units=km Length=0.017819 bus1=udm15258.1.2 bus2=udm15262.1.2 switch=n enabled=y phases=2 Linecode=1P_OH_AL_2/0_Rucina_2

New Line.l(r:udm15258-udt3900lv) Units=km Length=0.017807800000000002 bus1=udt3900lv.1.2 bus2=udm15258.1.2 switch=n enabled=y phases=2 Linecode=1P_OH_AL_2/0_Rucina_2

New Line.l(r:p1ulv8693-udm15259) Units=km Length=0.0933392 bus1=udm15259.1.2 bus2=p1ulv8693.1.2 switch=n enabled=y phases=2 Linecode=1P_OH_AL_4/0_Zuzara_2

New Line.l(r:p1ulv13052-udm15259) Units=km Length=0.0414005 bus1=udm15259.1.2 bus2=p1ulv13052.1.2 switch=n enabled=y phases=2 Linecode=1P_OH_AL_4/0_Zuzara_2

New Line.l(r:p1ulv30761-udm15259) Units=km Length=0.0401288 bus1=udm15259.1.2 bus2=p1ulv30761.1.2 switch=n enabled=y phases=2 Linecode=1P_OH_AL_4/0_Zuzara_2

New Line.l(r:p1ulv37368-udm15259) Units=km Length=0.0586879 bus1=udm15259.1.2 bus2=p1ulv37368.1.2 switch=n enabled=y phases=2 Linecode=1P_OH_AL_4/0_Zuzara_2

New Line.l(r:udm15259-udt3900lv) Units=km Length=0.017807800000000002 bus1=udt3900lv.1.2 bus2=udm15259.1.2 switch=n enabled=y phases=2 Linecode=1P_OH_AL_2/0_Rucina_2

New Line.l(r:p1ulv8695-udm15267) Units=km Length=0.0265831 bus1=udm15267.1.2 bus2=p1ulv8695.1.2 switch=n enabled=y phases=2 Linecode=1P_OH_AL_2/0_Rucina_2

New Line.l(r:udm15267-udt3902lv) Units=km Length=0.0191628 bus1=udt3902lv.1.2 bus2=udm15267.1.2 switch=n enabled=y phases=2 Linecode=1P_OH_AL_2/0_Rucina_2

New Line.l(r:p1ulv23764-udm15268) Units=km Length=0.0382953 bus1=udm15268.1.2 bus2=p1ulv23764.1.2 switch=n enabled=y phases=2 Linecode=1P_OH_AL_4/0_Zuzara_2

New Line.l(r:udm15268-udt3902lv) Units=km Length=0.019162 bus1=udt3902lv.1.2 bus2=udm15268.1.2 switch=n enabled=y phases=2 Linecode=1P_OH_AL_2/0_Rucina_2

New Line.l(r:p1ulv8699-udt3906lv) Units=km Length=0.0443622 bus1=udt3906lv.1.2 bus2=p1ulv8699.1.2 switch=n enabled=y phases=2 Linecode=1P_OH_AL_4/0_Zuzara_2

New Line.l(r:p1ulv8700-udt3906lv) Units=km Length=0.033534 bus1=udt3906lv.1.2 bus2=p1ulv8700.1.2 switch=n enabled=y phases=2 Linecode=1P_OH_AL_4/0_Zuzara_2

New Line.l(r:p1ulv23543-udt4003lv) Units=km Length=0.023709800000000003 bus1=udt4003lv.1.2 bus2=p1ulv23543.1.2 switch=n enabled=y phases=2 Linecode=1P_OH_AL_2/0_Rucina_2

New Line.l(r:p1ulv8831-udm15611) Units=km Length=0.0649744 bus1=udm15611.1.2 bus2=p1ulv8831.1.2 switch=n enabled=y phases=2 Linecode=1P_OH_AL_4/0_Zuzara_2

New Line.l(r:udm15611-udt4003lv) Units=km Length=0.0192251 bus1=udt4003lv.1.2 bus2=udm15611.1.2 switch=n enabled=y phases=2 Linecode=1P_OH_AL_2/0_Rucina_2

New Line.l(r:p1ulv13581-udm15612) Units=km Length=0.0483765 bus1=udm15612.1.2 bus2=p1ulv13581.1.2 switch=n enabled=y phases=2 Linecode=1P_OH_AL_4/0_Zuzara_2

New Line.l(r:udm15612-udt4003lv) Units=km Length=0.0192251 bus1=udt4003lv.1.2 bus2=udm15612.1.2 switch=n enabled=y phases=2 Linecode=1P_OH_AL_2/0_Rucina_2

New Line.l(r:p1ulv8832-udt4004lv) Units=km Length=0.027018 bus1=udt4004lv.1.2 bus2=p1ulv8832.1.2 switch=n enabled=y phases=2 Linecode=1P_OH_AL_4/0_Zuzara_2

New Line.l(r:p1ulv21739-udt4006lv) Units=km Length=0.0216716 bus1=udt4006lv.1.2 bus2=p1ulv21739.1.2 switch=n enabled=y phases=2 Linecode=1P_OH_AL_2/0_Rucina_2

New Line.l(r:p1ulv21827-udt4006lv) Units=km Length=0.0202882 bus1=udt4006lv.1.2 bus2=p1ulv21827.1.2 switch=n enabled=y phases=2 Linecode=1P_OH_AL_2/0_Rucina_2

New Line.l(r:p1ulv8834-udm15618) Units=km Length=0.0220033 bus1=udm15618.1.2 bus2=p1ulv8834.1.2 switch=n enabled=y phases=2 Linecode=1P_OH_AL_2/0_Rucina_2

New Line.l(r:p1ulv15456-udm15618) Units=km Length=0.0203464 bus1=udm15618.1.2 bus2=p1ulv15456.1.2 switch=n enabled=y phases=2 Linecode=1P_OH_AL_2/0_Rucina_2

New Line.l(r:udm15618-udt4006lv) Units=km Length=0.019304 bus1=udt4006lv.1.2 bus2=udm15618.1.2 switch=n enabled=y phases=2 Linecode=1P_OH_AL_2/0_Rucina_2

New Line.l(r:p1ulv23312-udm15622) Units=km Length=0.0224649 bus1=udm15622.1.2 bus2=p1ulv23312.1.2 switch=n enabled=y phases=2 Linecode=1P_OH_AL_2/0_Rucina_2

New Line.l(r:udm15622-udt4006lv) Units=km Length=0.0579208 bus1=udt4006lv.1.2 bus2=udm15622.1.2 switch=n enabled=y phases=2 Linecode=1P_OH_AL_4/0_Zuzara_2

New Line.l(r:p1ulv11130-udt5067lv) Units=km Length=0.0204806 bus1=udt5067lv.1.2 bus2=p1ulv11130.1.2 switch=n enabled=y phases=2 Linecode=1P_OH_AL_2/0_Rucina_2

New Line.l(r:p1ulv16798-udm19085) Units=km Length=0.0220113 bus1=udm19085.1.2 bus2=p1ulv16798.1.2 switch=n enabled=y phases=2 Linecode=1P_OH_AL_2/0_Rucina_2

New Line.l(r:udm19085-udt5067lv) Units=km Length=0.016553700000000005 bus1=udt5067lv.1.2 bus2=udm19085.1.2 switch=n enabled=y phases=2 Linecode=1P_OH_AL_2/0_Rucina_2

New Line.l(r:p1ulv21857-udt5071lv) Units=km Length=0.0119708 bus1=udt5071lv.1.2 bus2=p1ulv21857.1.2 switch=n enabled=y phases=2 Linecode=1P_OH_AL_2/0_Rucina_2

New Line.l(r:p1ulv11135-udm19096) Units=km Length=0.0100515 bus1=udm19096.1.2 bus2=p1ulv11135.1.2 switch=n enabled=y phases=2 Linecode=1P_OH_AL_2/0_Rucina_2

New Line.l(r:p1ulv22413-udm19096) Units=km Length=0.0117446 bus1=udm19096.1.2 bus2=p1ulv22413.1.2 switch=n enabled=y phases=2 Linecode=1P_OH_AL_2/0_Rucina_2

New Line.l(r:udm19096-udt5071lv) Units=km Length=0.0366439 bus1=udt5071lv.1.2 bus2=udm19096.1.2 switch=n enabled=y phases=2 Linecode=1P_OH_AL_4/0_Zuzara_2

New Line.l(r:p1ulv15366-udm19097) Units=km Length=0.0197662 bus1=udm19097.1.2 bus2=p1ulv15366.1.2 switch=n enabled=y phases=2 Linecode=1P_OH_AL_2/0_Rucina_2

New Line.l(r:udm19097-udt5071lv) Units=km Length=0.0342938 bus1=udt5071lv.1.2 bus2=udm19097.1.2 switch=n enabled=y phases=2 Linecode=1P_OH_AL_4/0_Zuzara_2

New Line.l(r:p1ulv22219-udt5072lv) Units=km Length=0.0114265 bus1=udt5072lv.1.2 bus2=p1ulv22219.1.2 switch=n enabled=y phases=2 Linecode=1P_OH_AL_2/0_Rucina_2

New Line.l(r:p1ulv25579-udt5072lv) Units=km Length=0.0212183 bus1=udt5072lv.1.2 bus2=p1ulv25579.1.2 switch=n enabled=y phases=2 Linecode=1P_OH_AL_2/0_Rucina_2

New Line.l(r:p1ulv11136-udm19100) Units=km Length=0.0255904 bus1=udm19100.1.2 bus2=p1ulv11136.1.2 switch=n enabled=y phases=2 Linecode=1P_OH_AL_2/0_Rucina_2

New Line.l(r:udm19100-udt5072lv) Units=km Length=0.0546213 bus1=udt5072lv.1.2 bus2=udm19100.1.2 switch=n enabled=y phases=2 Linecode=1P_OH_AL_4/0_Zuzara_2

New Line.l(r:p1ulv11140-udm19111) Units=km Length=0.02753 bus1=udm19111.1.2 bus2=p1ulv11140.1.2 switch=n enabled=y phases=2 Linecode=1P_OH_AL_4/0_Zuzara_2

New Line.l(r:udm19111-udt5075lv) Units=km Length=0.015621400000000002 bus1=udt5075lv.1.2 bus2=udm19111.1.2 switch=n enabled=y phases=2 Linecode=1P_OH_AL_2/0_Rucina_2

New Line.l(r:p1ulv23138-udm19112) Units=km Length=0.024582100000000003 bus1=udm19112.1.2 bus2=p1ulv23138.1.2 switch=n enabled=y phases=2 Linecode=1P_OH_AL_2/0_Rucina_2

New Line.l(r:udm19112-udt5075lv) Units=km Length=0.029195900000000004 bus1=udt5075lv.1.2 bus2=udm19112.1.2 switch=n enabled=y phases=2 Linecode=1P_OH_AL_4/0_Zuzara_2

New Line.l(r:p1ulv11142-udm19115) Units=km Length=0.0180357 bus1=udm19115.1.2 bus2=p1ulv11142.1.2 switch=n enabled=y phases=2 Linecode=1P_OH_AL_2/0_Rucina_2

New Line.l(r:udm19115-udt5077lv) Units=km Length=0.0436769 bus1=udt5077lv.1.2 bus2=udm19115.1.2 switch=n enabled=y phases=2 Linecode=1P_OH_AL_4/0_Zuzara_2

New Line.l(r:p1ulv23429-udm19116) Units=km Length=0.0175006 bus1=udm19116.1.2 bus2=p1ulv23429.1.2 switch=n enabled=y phases=2 Linecode=1P_OH_AL_2/0_Rucina_2

New Line.l(r:udm19116-udt5077lv) Units=km Length=0.015072000000000002 bus1=udt5077lv.1.2 bus2=udm19116.1.2 switch=n enabled=y phases=2 Linecode=1P_OH_AL_2/0_Rucina_2

New Line.l(r:p1ulv11143-udt5078lv) Units=km Length=0.024705300000000003 bus1=udt5078lv.1.2 bus2=p1ulv11143.1.2 switch=n enabled=y phases=2 Linecode=1P_OH_AL_2/0_Rucina_2

New Line.l(r:p1ulv13707-udm19118) Units=km Length=0.0157581 bus1=udm19118.1.2 bus2=p1ulv13707.1.2 switch=n enabled=y phases=2 Linecode=1P_OH_AL_2/0_Rucina_2

New Line.l(r:udm19118-udt5078lv) Units=km Length=0.055973 bus1=udt5078lv.1.2 bus2=udm19118.1.2 switch=n enabled=y phases=2 Linecode=1P_OH_AL_4/0_Zuzara_2

New Line.l(r:p1ulv11144-udt5079lv) Units=km Length=0.0279173 bus1=udt5079lv.1.2 bus2=p1ulv11144.1.2 switch=n enabled=y phases=2 Linecode=1P_OH_AL_4/0_Zuzara_2

New Line.l(r:p1ulv25268-udm19120) Units=km Length=0.0230244 bus1=udm19120.1.2 bus2=p1ulv25268.1.2 switch=n enabled=y phases=2 Linecode=1P_OH_AL_2/0_Rucina_2

New Line.l(r:udm19120-udt5079lv) Units=km Length=0.0291338 bus1=udt5079lv.1.2 bus2=udm19120.1.2 switch=n enabled=y phases=2 Linecode=1P_OH_AL_4/0_Zuzara_2

New Line.l(r:p1ulv23092-udt5082lv) Units=km Length=0.0231756 bus1=udt5082lv.1.2 bus2=p1ulv23092.1.2 switch=n enabled=y phases=2 Linecode=1P_OH_AL_2/0_Rucina_2

New Line.l(r:p1ulv31143-udt5082lv) Units=km Length=0.0414214 bus1=udt5082lv.1.2 bus2=p1ulv31143.1.2 switch=n enabled=y phases=2 Linecode=1P_OH_AL_4/0_Zuzara_2

New Line.l(r:p1ulv11147-udm19125) Units=km Length=0.020880500000000003 bus1=udm19125.1.2 bus2=p1ulv11147.1.2 switch=n enabled=y phases=2 Linecode=1P_OH_AL_2/0_Rucina_2

New Line.l(r:udm19125-udt5082lv) Units=km Length=0.0194818 bus1=udt5082lv.1.2 bus2=udm19125.1.2 switch=n enabled=y phases=2 Linecode=1P_OH_AL_2/0_Rucina_2

New Line.l(r:p1ulv11148-udm19128) Units=km Length=0.0117572 bus1=udm19128.1.2 bus2=p1ulv11148.1.2 switch=n enabled=y phases=2 Linecode=1P_OH_AL_2/0_Rucina_2

New Line.l(r:udm19128-udt5083lv) Units=km Length=0.0180017 bus1=udt5083lv.1.2 bus2=udm19128.1.2 switch=n enabled=y phases=2 Linecode=1P_OH_AL_2/0_Rucina_2

New Line.l(r:p1ulv15636-udm19129) Units=km Length=0.0221465 bus1=udm19129.1.2 bus2=p1ulv15636.1.2 switch=n enabled=y phases=2 Linecode=1P_OH_AL_2/0_Rucina_2

New Line.l(r:udm19129-udt5083lv) Units=km Length=0.0180017 bus1=udt5083lv.1.2 bus2=udm19129.1.2 switch=n enabled=y phases=2 Linecode=1P_OH_AL_2/0_Rucina_2

New Line.l(r:p1ulv13909-udt5166lv) Units=km Length=0.0230928 bus1=udt5166lv.1.2 bus2=p1ulv13909.1.2 switch=n enabled=y phases=2 Linecode=1P_UG_AL_1/0_Brenau_2

New Line.l(r:p1ulv37279-udt5166lv) Units=km Length=0.0198436 bus1=udt5166lv.1.2 bus2=p1ulv37279.1.2 switch=n enabled=y phases=2 Linecode=1P_UG_AL_1/0_Brenau_2

New Line.l(r:p1ulv11274-udm19416) Units=km Length=0.0233931 bus1=udm19416.1.2 bus2=p1ulv11274.1.2 switch=n enabled=y phases=2 Linecode=1P_OH_AL_2/0_Rucina_2

New Line.l(r:udm19416-udt5166lv) Units=km Length=0.0339515 bus1=udt5166lv.1.2 bus2=udm19416.1.2 switch=n enabled=y phases=2 Linecode=1P_OH_AL_4/0_Zuzara_2

New Line.l(r:p1ulv29117-udm19419) Units=km Length=0.015698 bus1=udm19419.1.2 bus2=p1ulv29117.1.2 switch=n enabled=y phases=2 Linecode=1P_UG_AL_1/0_Brenau_2

New Line.l(r:p1ulv18901-udm19418) Units=km Length=0.0218956 bus1=udm19418.1.2 bus2=p1ulv18901.1.2 switch=n enabled=y phases=2 Linecode=1P_UG_AL_1/0_Brenau_2

New Line.l(r:udm19418-udm19419) Units=km Length=0.0279031 bus1=udm19419.1.2 bus2=udm19418.1.2 switch=n enabled=y phases=2 Linecode=1P_UG_AL_1/0_Brenau_2

New Line.l(r:udm19419-udt5166lv) Units=km Length=0.00849038 bus1=udt5166lv.1.2 bus2=udm19419.1.2 switch=n enabled=y phases=2 Linecode=1P_UG_AL_4/0_Sweetbriar_2

New Line.l(r:p1ulv11275-udt5167lv) Units=km Length=0.0392423 bus1=udt5167lv.1.2 bus2=p1ulv11275.1.2 switch=n enabled=y phases=2 Linecode=1P_OH_AL_4/0_Zuzara_2

New Line.l(r:p1ulv19004-udt5167lv) Units=km Length=0.033493 bus1=udt5167lv.1.2 bus2=p1ulv19004.1.2 switch=n enabled=y phases=2 Linecode=1P_OH_AL_4/0_Zuzara_2

New Line.l(r:p1ulv11283-udm19422) Units=km Length=0.0238552 bus1=udm19422.1.2 bus2=p1ulv11283.1.2 switch=n enabled=y phases=2 Linecode=1P_OH_AL_2/0_Rucina_2

New Line.l(r:udm19422-udt5167lv) Units=km Length=0.0136377 bus1=udt5167lv.1.2 bus2=udm19422.1.2 switch=n enabled=y phases=2 Linecode=1P_OH_AL_2/0_Rucina_2

New Line.l(r:p1ulv11276-udt5168lv) Units=km Length=0.021291600000000004 bus1=udt5168lv.1.2 bus2=p1ulv11276.1.2 switch=n enabled=y phases=2 Linecode=1P_OH_AL_2/0_Rucina_2

New Line.l(r:p1ulv25871-udt5168lv) Units=km Length=0.0197062 bus1=udt5168lv.1.2 bus2=p1ulv25871.1.2 switch=n enabled=y phases=2 Linecode=1P_OH_AL_2/0_Rucina_2

New Line.l(r:p1ulv11277-udm19425) Units=km Length=0.0185974 bus1=udm19425.1.2 bus2=p1ulv11277.1.2 switch=n enabled=y phases=2 Linecode=1P_OH_AL_2/0_Rucina_2

New Line.l(r:udm19425-udt5168lv) Units=km Length=0.0169451 bus1=udt5168lv.1.2 bus2=udm19425.1.2 switch=n enabled=y phases=2 Linecode=1P_OH_AL_2/0_Rucina_2

New Line.l(r:p1ulv15315-udm19426) Units=km Length=0.0176972 bus1=udm19426.1.2 bus2=p1ulv15315.1.2 switch=n enabled=y phases=2 Linecode=1P_OH_AL_2/0_Rucina_2

New Line.l(r:udm19426-udt5168lv) Units=km Length=0.0157875 bus1=udt5168lv.1.2 bus2=udm19426.1.2 switch=n enabled=y phases=2 Linecode=1P_OH_AL_2/0_Rucina_2

New Line.l(r:p1ulv15626-udt5171lv) Units=km Length=0.0194709 bus1=udt5171lv.1.2 bus2=p1ulv15626.1.2 switch=n enabled=y phases=2 Linecode=1P_OH_AL_2/0_Rucina_2

New Line.l(r:p1ulv19052-udm19432) Units=km Length=0.0213008 bus1=udm19432.1.2 bus2=p1ulv19052.1.2 switch=n enabled=y phases=2 Linecode=1P_OH_AL_2/0_Rucina_2

New Line.l(r:p1ulv34087-udm19432) Units=km Length=0.0207012 bus1=udm19432.1.2 bus2=p1ulv34087.1.2 switch=n enabled=y phases=2 Linecode=1P_OH_AL_2/0_Rucina_2

New Line.l(r:udm19432-udt5171lv) Units=km Length=0.017292 bus1=udt5171lv.1.2 bus2=udm19432.1.2 switch=n enabled=y phases=2 Linecode=1P_OH_AL_2/0_Rucina_2

New Line.l(r:p1ulv21799-udm19433) Units=km Length=0.0257041 bus1=udm19433.1.2 bus2=p1ulv21799.1.2 switch=n enabled=y phases=2 Linecode=1P_OH_AL_2/0_Rucina_2

New Line.l(r:p1ulv11280-udm19430) Units=km Length=0.0186967 bus1=udm19430.1.2 bus2=p1ulv11280.1.2 switch=n enabled=y phases=2 Linecode=1P_OH_AL_2/0_Rucina_2

New Line.l(r:udm19430-udm19433) Units=km Length=0.017292 bus1=udm19433.1.2 bus2=udm19430.1.2 switch=n enabled=y phases=2 Linecode=1P_OH_AL_2/0_Rucina_2

New Line.l(r:udm19433-udt5171lv) Units=km Length=0.0173021 bus1=udt5171lv.1.2 bus2=udm19433.1.2 switch=n enabled=y phases=2 Linecode=1P_OH_AL_2/0_Rucina_2

New Line.l(r:p1ulv11281-udm19435) Units=km Length=0.0245011 bus1=udm19435.1.2 bus2=p1ulv11281.1.2 switch=n enabled=y phases=2 Linecode=1P_UG_AL_1/0_Brenau_2

New Line.l(r:udm19435-udt5172lv) Units=km Length=0.0242863 bus1=udt5172lv.1.2 bus2=udm19435.1.2 switch=n enabled=y phases=2 Linecode=1P_UG_AL_1/0_Brenau_2

New Line.l(r:p1ulv18195-udm19436) Units=km Length=0.0320526 bus1=udm19436.1.2 bus2=p1ulv18195.1.2 switch=n enabled=y phases=2 Linecode=1P_UG_AL_1/0_Brenau_2

New Line.l(r:udm19436-udt5172lv) Units=km Length=0.00973532 bus1=udt5172lv.1.2 bus2=udm19436.1.2 switch=n enabled=y phases=2 Linecode=1P_UG_AL_1/0_Brenau_2

New Line.l(r:p1ulv11282-udt5173lv) Units=km Length=0.0250334 bus1=udt5173lv.1.2 bus2=p1ulv11282.1.2 switch=n enabled=y phases=2 Linecode=1P_OH_AL_2/0_Rucina_2

New Line.l(r:p1ulv15431-udt5173lv) Units=km Length=0.022255800000000003 bus1=udt5173lv.1.2 bus2=p1ulv15431.1.2 switch=n enabled=y phases=2 Linecode=1P_OH_AL_2/0_Rucina_2

New Line.l(r:p1ulv11285-udt5175lv) Units=km Length=0.032393 bus1=udt5175lv.1.2 bus2=p1ulv11285.1.2 switch=n enabled=y phases=2 Linecode=1P_OH_AL_4/0_Zuzara_2

New Line.l(r:p1ulv13397-udt5175lv) Units=km Length=0.0279322 bus1=udt5175lv.1.2 bus2=p1ulv13397.1.2 switch=n enabled=y phases=2 Linecode=1P_OH_AL_4/0_Zuzara_2

New Line.l(r:p1ulv11286-udm19442) Units=km Length=0.023966500000000005 bus1=udm19442.1.2 bus2=p1ulv11286.1.2 switch=n enabled=y phases=2 Linecode=1P_OH_AL_2/0_Rucina_2

New Line.l(r:udm19442-udt5176lv) Units=km Length=0.015685 bus1=udt5176lv.1.2 bus2=udm19442.1.2 switch=n enabled=y phases=2 Linecode=1P_OH_AL_2/0_Rucina_2

New Line.l(r:p1ulv23984-udm19443) Units=km Length=0.020058 bus1=udm19443.1.2 bus2=p1ulv23984.1.2 switch=n enabled=y phases=2 Linecode=1P_OH_AL_2/0_Rucina_2

New Line.l(r:udm19443-udt5176lv) Units=km Length=0.0156908 bus1=udt5176lv.1.2 bus2=udm19443.1.2 switch=n enabled=y phases=2 Linecode=1P_OH_AL_2/0_Rucina_2

New Line.l(r:p1ulv11287-udt5177lv) Units=km Length=0.0224932 bus1=udt5177lv.1.2 bus2=p1ulv11287.1.2 switch=n enabled=y phases=2 Linecode=1P_OH_AL_2/0_Rucina_2

New Line.l(r:p1ulv11288-udm19445) Units=km Length=0.0258091 bus1=udm19445.1.2 bus2=p1ulv11288.1.2 switch=n enabled=y phases=2 Linecode=1P_OH_AL_2/0_Rucina_2

New Line.l(r:udm19445-udt5178lv) Units=km Length=0.029142800000000003 bus1=udt5178lv.1.2 bus2=udm19445.1.2 switch=n enabled=y phases=2 Linecode=1P_OH_AL_4/0_Zuzara_2

New Line.l(r:p1ulv18343-udm19446) Units=km Length=0.0287132 bus1=udm19446.1.2 bus2=p1ulv18343.1.2 switch=n enabled=y phases=2 Linecode=1P_OH_AL_4/0_Zuzara_2

New Line.l(r:udm19446-udt5178lv) Units=km Length=0.0127728 bus1=udt5178lv.1.2 bus2=udm19446.1.2 switch=n enabled=y phases=2 Linecode=1P_OH_AL_2/0_Rucina_2

New Line.l(r:p1ulv16591-udt5179lv) Units=km Length=0.0176207 bus1=udt5179lv.1.2 bus2=p1ulv16591.1.2 switch=n enabled=y phases=2 Linecode=1P_OH_AL_2/0_Rucina_2

New Line.l(r:p1ulv11289-udm19447) Units=km Length=0.0181946 bus1=udm19447.1.2 bus2=p1ulv11289.1.2 switch=n enabled=y phases=2 Linecode=1P_OH_AL_2/0_Rucina_2

New Line.l(r:p1ulv15119-udm19448) Units=km Length=0.020697700000000003 bus1=udm19448.1.2 bus2=p1ulv15119.1.2 switch=n enabled=y phases=2 Linecode=1P_OH_AL_2/0_Rucina_2

New Line.l(r:udm19447-udm19448) Units=km Length=0.0101555 bus1=udm19447.1.2 bus2=udm19448.1.2 switch=n enabled=y phases=2 Linecode=1P_OH_AL_2/0_Rucina_2

New Line.l(r:udm19447-udt5179lv) Units=km Length=0.0101647 bus1=udt5179lv.1.2 bus2=udm19447.1.2 switch=n enabled=y phases=2 Linecode=1P_OH_AL_2/0_Rucina_2

New Line.l(r:p1ulv37327-udm19450) Units=km Length=0.017589900000000002 bus1=udm19450.1.2 bus2=p1ulv37327.1.2 switch=n enabled=y phases=2 Linecode=1P_OH_AL_2/0_Rucina_2

New Line.l(r:udm19450-udt5179lv) Units=km Length=0.0197152 bus1=udt5179lv.1.2 bus2=udm19450.1.2 switch=n enabled=y phases=2 Linecode=1P_OH_AL_2/0_Rucina_2

New Line.l(r:p1ulv11290-udm19451) Units=km Length=0.0347797 bus1=udm19451.1.2 bus2=p1ulv11290.1.2 switch=n enabled=y phases=2 Linecode=1P_OH_AL_4/0_Zuzara_2

New Line.l(r:udm19451-udt5180lv) Units=km Length=0.0172517 bus1=udt5180lv.1.2 bus2=udm19451.1.2 switch=n enabled=y phases=2 Linecode=1P_OH_AL_2/0_Rucina_2

New Line.l(r:p1ulv11292-udm19452) Units=km Length=0.0337764 bus1=udm19452.1.2 bus2=p1ulv11292.1.2 switch=n enabled=y phases=2 Linecode=1P_OH_AL_4/0_Zuzara_2

New Line.l(r:udm19452-udt5180lv) Units=km Length=0.0381501 bus1=udt5180lv.1.2 bus2=udm19452.1.2 switch=n enabled=y phases=2 Linecode=1P_OH_AL_4/0_Zuzara_2

New Line.l(r:p1ulv11291-udm19453) Units=km Length=0.0259255 bus1=udm19453.1.2 bus2=p1ulv11291.1.2 switch=n enabled=y phases=2 Linecode=1P_OH_AL_2/0_Rucina_2

New Line.l(r:p1ulv13607-udm19455) Units=km Length=0.026742700000000005 bus1=udm19455.1.2 bus2=p1ulv13607.1.2 switch=n enabled=y phases=2 Linecode=1P_OH_AL_2/0_Rucina_2

New Line.l(r:udm19453-udm19455) Units=km Length=0.0141337 bus1=udm19453.1.2 bus2=udm19455.1.2 switch=n enabled=y phases=2 Linecode=1P_OH_AL_2/0_Rucina_2

New Line.l(r:udm19453-udt5181lv) Units=km Length=0.0141327 bus1=udt5181lv.1.2 bus2=udm19453.1.2 switch=n enabled=y phases=2 Linecode=1P_OH_AL_2/0_Rucina_2

New Line.l(r:p1ulv11295-udm19454) Units=km Length=0.023918100000000005 bus1=udm19454.1.2 bus2=p1ulv11295.1.2 switch=n enabled=y phases=2 Linecode=1P_OH_AL_2/0_Rucina_2

New Line.l(r:udm19454-udt5181lv) Units=km Length=0.030757900000000005 bus1=udt5181lv.1.2 bus2=udm19454.1.2 switch=n enabled=y phases=2 Linecode=1P_OH_AL_4/0_Zuzara_2

New Line.l(r:p1ulv17080-udt5182lv) Units=km Length=0.0502471 bus1=udt5182lv.1.2 bus2=p1ulv17080.1.2 switch=n enabled=y phases=2 Linecode=1P_OH_AL_4/0_Zuzara_2

New Line.l(r:p1ulv11293-udm19456) Units=km Length=0.0366711 bus1=udm19456.1.2 bus2=p1ulv11293.1.2 switch=n enabled=y phases=2 Linecode=1P_OH_AL_4/0_Zuzara_2

New Line.l(r:udm19456-udt5182lv) Units=km Length=0.0142962 bus1=udt5182lv.1.2 bus2=udm19456.1.2 switch=n enabled=y phases=2 Linecode=1P_OH_AL_2/0_Rucina_2

New Line.l(r:p1ulv11296-udm19458) Units=km Length=0.0198193 bus1=udm19458.1.2 bus2=p1ulv11296.1.2 switch=n enabled=y phases=2 Linecode=1P_OH_AL_2/0_Rucina_2

New Line.l(r:udm19458-udt5183lv) Units=km Length=0.027998 bus1=udt5183lv.1.2 bus2=udm19458.1.2 switch=n enabled=y phases=2 Linecode=1P_OH_AL_4/0_Zuzara_2

New Line.l(r:p1ulv29207-udm19459) Units=km Length=0.023510800000000002 bus1=udm19459.1.2 bus2=p1ulv29207.1.2 switch=n enabled=y phases=2 Linecode=1P_OH_AL_2/0_Rucina_2

New Line.l(r:udm19459-udt5183lv) Units=km Length=0.0180307 bus1=udt5183lv.1.2 bus2=udm19459.1.2 switch=n enabled=y phases=2 Linecode=1P_OH_AL_2/0_Rucina_2

New Line.l(r:p1ulv16982-udt5184lv) Units=km Length=0.0316448 bus1=udt5184lv.1.2 bus2=p1ulv16982.1.2 switch=n enabled=y phases=2 Linecode=1P_OH_AL_4/0_Zuzara_2

New Line.l(r:p1ulv24635-udt5184lv) Units=km Length=0.031083700000000002 bus1=udt5184lv.1.2 bus2=p1ulv24635.1.2 switch=n enabled=y phases=2 Linecode=1P_OH_AL_4/0_Zuzara_2

New Line.l(r:p1ulv11297-udm19460) Units=km Length=0.031749 bus1=udm19460.1.2 bus2=p1ulv11297.1.2 switch=n enabled=y phases=2 Linecode=1P_OH_AL_4/0_Zuzara_2

New Line.l(r:p1ulv25568-udm19460) Units=km Length=0.0199337 bus1=udm19460.1.2 bus2=p1ulv25568.1.2 switch=n enabled=y phases=2 Linecode=1P_OH_AL_2/0_Rucina_2

New Line.l(r:udm19460-udt5184lv) Units=km Length=0.0171308 bus1=udt5184lv.1.2 bus2=udm19460.1.2 switch=n enabled=y phases=2 Linecode=1P_OH_AL_2/0_Rucina_2

New Line.l(r:p1ulv14735-udt5185lv) Units=km Length=0.0217683 bus1=udt5185lv.1.2 bus2=p1ulv14735.1.2 switch=n enabled=y phases=2 Linecode=1P_OH_AL_2/0_Rucina_2

New Line.l(r:p1ulv11298-udm19464) Units=km Length=0.029593700000000004 bus1=udm19464.1.2 bus2=p1ulv11298.1.2 switch=n enabled=y phases=2 Linecode=1P_OH_AL_4/0_Zuzara_2

New Line.l(r:udm19464-udt5185lv) Units=km Length=0.0189325 bus1=udt5185lv.1.2 bus2=udm19464.1.2 switch=n enabled=y phases=2 Linecode=1P_OH_AL_2/0_Rucina_2

New Line.l(r:p1ulv13264-udm19465) Units=km Length=0.0209653 bus1=udm19465.1.2 bus2=p1ulv13264.1.2 switch=n enabled=y phases=2 Linecode=1P_OH_AL_2/0_Rucina_2

New Line.l(r:udm19465-udt5185lv) Units=km Length=0.0118007 bus1=udt5185lv.1.2 bus2=udm19465.1.2 switch=n enabled=y phases=2 Linecode=1P_OH_AL_2/0_Rucina_2

New Line.l(r:p1ulv11299-udt5186lv) Units=km Length=0.023205 bus1=udt5186lv.1.2 bus2=p1ulv11299.1.2 switch=n enabled=y phases=2 Linecode=1P_OH_AL_2/0_Rucina_2

New Line.l(r:p1ulv23081-udm19468) Units=km Length=0.0239416 bus1=udm19468.1.2 bus2=p1ulv23081.1.2 switch=n enabled=y phases=2 Linecode=1P_OH_AL_2/0_Rucina_2

New Line.l(r:p1ulv36013-udm19468) Units=km Length=0.0134625 bus1=udm19468.1.2 bus2=p1ulv36013.1.2 switch=n enabled=y phases=2 Linecode=1P_OH_AL_2/0_Rucina_2

New Line.l(r:udm19468-udt5186lv) Units=km Length=0.0189325 bus1=udt5186lv.1.2 bus2=udm19468.1.2 switch=n enabled=y phases=2 Linecode=1P_OH_AL_2/0_Rucina_2

New Line.l(r:p1ulv11300-udm19470) Units=km Length=0.0213438 bus1=udm19470.1.2 bus2=p1ulv11300.1.2 switch=n enabled=y phases=2 Linecode=1P_OH_AL_2/0_Rucina_2

New Line.l(r:udm19470-udt5187lv) Units=km Length=0.0165958 bus1=udt5187lv.1.2 bus2=udm19470.1.2 switch=n enabled=y phases=2 Linecode=1P_OH_AL_2/0_Rucina_2

New Line.l(r:p1ulv17211-udm19471) Units=km Length=0.0212528 bus1=udm19471.1.2 bus2=p1ulv17211.1.2 switch=n enabled=y phases=2 Linecode=1P_OH_AL_2/0_Rucina_2

New Line.l(r:udm19471-udt5187lv) Units=km Length=0.016599 bus1=udt5187lv.1.2 bus2=udm19471.1.2 switch=n enabled=y phases=2 Linecode=1P_OH_AL_2/0_Rucina_2

New Line.l(r:p1ulv11301-udt5188lv) Units=km Length=0.0230451 bus1=udt5188lv.1.2 bus2=p1ulv11301.1.2 switch=n enabled=y phases=2 Linecode=1P_OH_AL_2/0_Rucina_2

New Line.l(r:p1ulv15225-udt5189lv) Units=km Length=0.0216044 bus1=udt5189lv.1.2 bus2=p1ulv15225.1.2 switch=n enabled=y phases=2 Linecode=1P_OH_AL_2/0_Rucina_2

New Line.l(r:p1ulv11302-udm19473) Units=km Length=0.0220696 bus1=udm19473.1.2 bus2=p1ulv11302.1.2 switch=n enabled=y phases=2 Linecode=1P_OH_AL_2/0_Rucina_2

New Line.l(r:udm19473-udt5189lv) Units=km Length=0.0195277 bus1=udt5189lv.1.2 bus2=udm19473.1.2 switch=n enabled=y phases=2 Linecode=1P_OH_AL_2/0_Rucina_2

New Line.l(r:p1ulv13780-udt5283lv) Units=km Length=0.0191155 bus1=udt5283lv.1.2 bus2=p1ulv13780.1.2 switch=n enabled=y phases=2 Linecode=1P_OH_AL_2/0_Rucina_2

New Line.l(r:p1ulv18914-udt5283lv) Units=km Length=0.0200948 bus1=udt5283lv.1.2 bus2=p1ulv18914.1.2 switch=n enabled=y phases=2 Linecode=1P_OH_AL_2/0_Rucina_2

New Line.l(r:p1ulv23874-udm19741) Units=km Length=0.0199751 bus1=udm19741.1.2 bus2=p1ulv23874.1.2 switch=n enabled=y phases=2 Linecode=1P_OH_AL_2/0_Rucina_2

New Line.l(r:p1ulv25926-udm19741) Units=km Length=0.0187599 bus1=udm19741.1.2 bus2=p1ulv25926.1.2 switch=n enabled=y phases=2 Linecode=1P_OH_AL_2/0_Rucina_2

New Line.l(r:p1ulv23728-udm19740) Units=km Length=0.0222244 bus1=udm19740.1.2 bus2=p1ulv23728.1.2 switch=n enabled=y phases=2 Linecode=1P_OH_AL_2/0_Rucina_2

New Line.l(r:p1ulv11499-udm19737) Units=km Length=0.015856 bus1=udm19737.1.2 bus2=p1ulv11499.1.2 switch=n enabled=y phases=2 Linecode=1P_OH_AL_2/0_Rucina_2

New Line.l(r:udm19737-udm19740) Units=km Length=0.0182821 bus1=udm19740.1.2 bus2=udm19737.1.2 switch=n enabled=y phases=2 Linecode=1P_OH_AL_2/0_Rucina_2

New Line.l(r:udm19740-udm19741) Units=km Length=0.0365642 bus1=udm19741.1.2 bus2=udm19740.1.2 switch=n enabled=y phases=2 Linecode=1P_OH_AL_4/0_Zuzara_2

New Line.l(r:udm19741-udt5283lv) Units=km Length=0.0182821 bus1=udt5283lv.1.2 bus2=udm19741.1.2 switch=n enabled=y phases=2 Linecode=1P_OH_AL_2/0_Rucina_2_1

New Line.l(r:p1ulv11500-udt5284lv) Units=km Length=0.0302534 bus1=udt5284lv.1.2 bus2=p1ulv11500.1.2 switch=n enabled=y phases=2 Linecode=1P_OH_AL_4/0_Zuzara_2

...